gem5 Simulator System.  http://gem5.org
gem5 is copyrighted software; use the --copyright option for details.

gem5 compiled May  3 2024 03:14:21
gem5 started May  3 2024 03:28:51
gem5 executing on 871938665c19
command line: ./build/X86/gem5.opt configs/example/se.py --cpu-type=detailed --caches --l2cache --mem-type=DDR4_2400_x64 --mem-size=8192MB -c /home/MIMDRAM/18872_SHIF-DRAM/microworkloads/sad_plus.exe -o '10 1'

Global frequency set at 1000000000000 ticks per second
**** REAL SIMULATION ****
info: Entering event queue @ 0.  Starting simulation...
info: Increasing stack size by one page.
Sum of absolute differences: 1104336651
Exiting @ tick 158254500 because target called exit()
